_c001_1
  ChemPy            3D                             0

 68 72  0  0  1  0  0  0  0  0999 V2000
    3.0731   -0.8924   -9.3134 N   0  0  0  0  0  0  0  0  0  0  0  0
    4.6874   -0.6326  -11.7100 N   0  0  0  0  0  0  0  0  0  0  0  0
   -2.3355    2.6968   -6.1489 N   0  0  0  0  0  0  0  0  0  0  0  0
   -6.7373    2.0060   -4.2943 N   0  0  0  0  0  0  0  0  0  0  0  0
   -6.6740    0.5929   -6.1538 N   0  0  0  0  0  0  0  0  0  0  0  0
   -8.0660    0.0846   -4.3772 N   0  0  0  0  0  0  0  0  0  0  0  0
   -5.6067   -0.0445  -10.1952 N   0  0  0  0  0  0  0  0  0  0  0  0
    3.3007    0.3992   -9.9732 C   0  0  0  0  0  0  0  0  0  0  0  0
    4.2710   -1.7079   -9.5481 C   0  0  0  0  0  0  0  0  0  0  0  0
    3.4894    0.1830  -11.4753 C   0  0  0  0  0  0  0  0  0  0  0  0
    4.4597   -1.9241  -11.0500 C   0  0  0  0  0  0  0  0  0  0  0  0
    3.0203   -0.6253   -7.8698 C   0  0  0  0  0  0  0  0  0  0  0  0
    4.7402   -0.8995  -13.1535 C   0  0  0  0  0  0  0  0  0  0  0  0
    1.6574   -0.0949   -7.5066 C   0  0  0  0  0  0  0  0  0  0  0  0
    0.5236   -0.7027   -8.0162 C   0  0  0  0  0  0  0  0  0  0  0  0
    1.5450    0.9940   -6.6604 C   0  0  0  0  0  0  0  0  0  0  0  0
   -0.7272   -0.2222   -7.6877 C   0  0  0  0  0  0  0  0  0  0  0  0
    0.3004    1.4843   -6.3235 C   0  0  0  0  0  0  0  0  0  0  0  0
   -0.8474    0.8793   -6.8387 C   0  0  0  0  0  0  0  0  0  0  0  0
   -2.1843    1.3998   -6.4828 C   0  0  0  0  0  0  0  0  0  0  0  0
   -3.6004    3.1892   -5.8123 C   0  0  0  0  0  0  0  0  0  0  0  0
   -5.7910    2.8454   -4.8895 C   0  0  0  0  0  0  0  0  0  0  0  0
   -4.5367    2.3527   -5.2220 C   0  0  0  0  0  0  0  0  0  0  0  0
   -6.1047    4.1739   -5.1485 C   0  0  0  0  0  0  0  0  0  0  0  0
   -3.9187    4.5185   -6.0634 C   0  0  0  0  0  0  0  0  0  0  0  0
   -5.1679    5.0057   -5.7311 C   0  0  0  0  0  0  0  0  0  0  0  0
   -7.4664    4.7097   -4.7881 C   0  0  0  0  0  0  0  0  0  0  0  0
   -7.1689    0.8686   -4.9572 C   0  0  0  0  0  0  0  0  0  0  0  0
   -7.0680   -0.4919   -6.8165 C   0  0  0  0  0  0  0  0  0  0  0  0
   -6.5118   -0.7990   -8.1565 C   0  0  0  0  0  0  0  0  0  0  0  0
   -8.0137   -1.3375   -6.2300 C   0  0  0  0  0  0  0  0  0  0  0  0
   -8.5035   -1.0107   -4.9781 C   0  0  0  0  0  0  0  0  0  0  0  0
   -6.3916   -2.1231   -8.5894 C   0  0  0  0  0  0  0  0  0  0  0  0
   -6.1009    0.2272   -9.0047 C   0  0  0  0  0  0  0  0  0  0  0  0
   -5.8668   -2.3568   -9.8487 C   0  0  0  0  0  0  0  0  0  0  0  0
   -5.4816   -1.2832  -10.6310 C   0  0  0  0  0  0  0  0  0  0  0  0
   -3.1474    0.6581   -6.4914 O   0  0  0  0  0  0  0  0  0  0  0  0
    2.4416    1.0489   -9.8054 H   0  0  0  0  0  0  0  0  0  0  0  0
    4.1943    0.8659   -9.5587 H   0  0  0  0  0  0  0  0  0  0  0  0
    5.1437   -1.1958   -9.1427 H   0  0  0  0  0  0  0  0  0  0  0  0
    4.1554   -2.6729   -9.0544 H   0  0  0  0  0  0  0  0  0  0  0  0
    3.6051    1.1479  -11.9689 H   0  0  0  0  0  0  0  0  0  0  0  0
    2.6169   -0.3290  -11.8805 H   0  0  0  0  0  0  0  0  0  0  0  0
    3.5662   -2.3907  -11.4646 H   0  0  0  0  0  0  0  0  0  0  0  0
    5.3188   -2.5736  -11.2179 H   0  0  0  0  0  0  0  0  0  0  0  0
    3.2086   -1.5488   -7.3224 H   0  0  0  0  0  0  0  0  0  0  0  0
    3.7788    0.1128   -7.6090 H   0  0  0  0  0  0  0  0  0  0  0  0
    5.6176   -1.5055  -13.3790 H   0  0  0  0  0  0  0  0  0  0  0  0
    3.8408   -1.4353  -13.4570 H   0  0  0  0  0  0  0  0  0  0  0  0
    4.8013    0.0442  -13.6955 H   0  0  0  0  0  0  0  0  0  0  0  0
    0.6180   -1.5549   -8.6729 H   0  0  0  0  0  0  0  0  0  0  0  0
    2.4338    1.4610   -6.2624 H   0  0  0  0  0  0  0  0  0  0  0  0
   -1.6113   -0.6970   -8.0866 H   0  0  0  0  0  0  0  0  0  0  0  0
    0.2140    2.3340   -5.6626 H   0  0  0  0  0  0  0  0  0  0  0  0
   -1.5670    3.2886   -6.1420 H   0  0  0  0  0  0  0  0  0  0  0  0
   -4.2904    1.3205   -5.0222 H   0  0  0  0  0  0  0  0  0  0  0  0
   -3.1886    5.1713   -6.5184 H   0  0  0  0  0  0  0  0  0  0  0  0
   -5.4144    6.0379   -5.9318 H   0  0  0  0  0  0  0  0  0  0  0  0
   -7.0917    2.2198   -3.4171 H   0  0  0  0  0  0  0  0  0  0  0  0
   -7.5273    5.7624   -5.0640 H   0  0  0  0  0  0  0  0  0  0  0  0
   -8.2314    4.1484   -5.3247 H   0  0  0  0  0  0  0  0  0  0  0  0
   -7.6254    4.6056   -3.7148 H   0  0  0  0  0  0  0  0  0  0  0  0
   -8.3542   -2.2253   -6.7421 H   0  0  0  0  0  0  0  0  0  0  0  0
   -9.2350   -1.6425   -4.4962 H   0  0  0  0  0  0  0  0  0  0  0  0
   -6.7001   -2.9425   -7.9573 H   0  0  0  0  0  0  0  0  0  0  0  0
   -6.1880    1.2544   -8.6831 H   0  0  0  0  0  0  0  0  0  0  0  0
   -5.7590   -3.3665  -10.2162 H   0  0  0  0  0  0  0  0  0  0  0  0
   -5.0718   -1.4619  -11.6142 H   0  0  0  0  0  0  0  0  0  0  0  0
  1  8  1  0  0  0  0
  1  9  1  0  0  0  0
  1 12  1  0  0  0  0
  2 10  1  0  0  0  0
  2 11  1  0  0  0  0
  2 13  1  0  0  0  0
  3 20  1  0  0  0  0
  3 21  1  0  0  0  0
  3 55  1  0  0  0  0
  4 22  1  0  0  0  0
  4 28  1  0  0  0  0
  4 59  1  0  0  0  0
  5 28  1  0  0  0  0
  5 29  2  0  0  0  0
  6 28  2  0  0  0  0
  6 32  1  0  0  0  0
  7 34  1  0  0  0  0
  7 36  2  0  0  0  0
  8 10  1  0  0  0  0
  8 38  1  0  0  0  0
  8 39  1  0  0  0  0
  9 11  1  0  0  0  0
  9 40  1  0  0  0  0
  9 41  1  0  0  0  0
 10 42  1  0  0  0  0
 10 43  1  0  0  0  0
 11 44  1  0  0  0  0
 11 45  1  0  0  0  0
 12 14  1  0  0  0  0
 12 46  1  0  0  0  0
 12 47  1  0  0  0  0
 13 48  1  0  0  0  0
 13 49  1  0  0  0  0
 13 50  1  0  0  0  0
 14 15  2  0  0  0  0
 14 16  1  0  0  0  0
 15 17  1  0  0  0  0
 15 51  1  0  0  0  0
 16 18  2  0  0  0  0
 16 52  1  0  0  0  0
 17 19  2  0  0  0  0
 17 53  1  0  0  0  0
 18 19  1  0  0  0  0
 18 54  1  0  0  0  0
 19 20  1  0  0  0  0
 21 23  2  0  0  0  0
 21 25  1  0  0  0  0
 22 23  1  0  0  0  0
 22 24  2  0  0  0  0
 23 56  1  0  0  0  0
 24 26  1  0  0  0  0
 24 27  1  0  0  0  0
 25 26  2  0  0  0  0
 25 57  1  0  0  0  0
 26 58  1  0  0  0  0
 27 60  1  0  0  0  0
 27 61  1  0  0  0  0
 27 62  1  0  0  0  0
 29 30  1  0  0  0  0
 29 31  1  0  0  0  0
 30 33  1  0  0  0  0
 30 34  2  0  0  0  0
 31 32  2  0  0  0  0
 31 63  1  0  0  0  0
 32 64  1  0  0  0  0
 33 35  2  0  0  0  0
 33 65  1  0  0  0  0
 34 66  1  0  0  0  0
 35 36  1  0  0  0  0
 35 67  1  0  0  0  0
 36 68  1  0  0  0  0
 37 20  2  0  0  0  0
M  END
$$$$
